!!>>>>>>>>>>>>>>>>>>>>>>>>>>>>>>>>>>>>>>>>>>>>>>>>>>>>>>>>>>>>>>>>>>>>>>
!! NEMO/OCE :   Reference namelist_ref                                !!
!!>>>>>>>>>>>>>>>>>>>>>>>>>>>>>>>>>>>>>>>>>>>>>>>>>>>>>>>>>>>>>>>>>>>>>>
!! NEMO/OCE  :  1 - Domain & run manager (namrun, namcfg, namdom, namtsd, namcrs, namc1d, namc1d_uvd)
!! namelists    2 - Surface boundary (namsbc, namsbc_flx, namsbc_blk, namsbc_cpl,
!!                                    namsbc_sas, namtra_qsr, namsbc_rnf,
!!                                    namisf, namsbc_apr, 
!!                                    namsbc_ssr, namsbc_wave, namberg)
!!              3 - lateral boundary (namlbc, namagrif, nambdy, nambdy_tide)
!!              4 - top/bot boundary (namdrg, namdrg_top, namdrg_bot, nambbc, nambbl)
!!              5 - Tracer           (nameos, namtra_adv, namtra_ldf, namtra_eiv, namtra_dmp)
!!              6 - dynamics         (namdyn_adv, namdyn_vor, namdyn_hpg, namdyn_spg, namdyn_ldf)
!!              7 - Vertical physics (namzdf, namzdf_ric, namzdf_tke, namzdf_gls, namzdf_iwm)
!!              8 - diagnostics      (namnc4, namtrd, namspr, namflo, namhsb)
!!              9 - Obs & Assim      (namobs, nam_asminc)
!!             10 - miscellaneous    (nammpp, namctl, namsto)
!!>>>>>>>>>>>>>>>>>>>>>>>>>>>>>>>>>>>>>>>>>>>>>>>>>>>>>>>>>>>>>>>>>>>>>>

!!======================================================================
!!              ***  Domain & Run management namelists  ***           !!
!!                                                                    !!
!!   namrun       parameters of the run
!!   namdom       space and time domain
!!   namcfg       parameters of the configuration                       (default: user defined GYRE)
!!   namwad       Wetting and drying                                    (default: OFF)
!!   namtsd       data: temperature & salinity                          (default: OFF)
!!   namcrs       coarsened grid (for outputs and/or TOP)               (ln_crs =T)
!!   namc1d       1D configuration options                              (ln_c1d =T)
!!   namc1d_dyndmp 1D newtonian damping applied on currents             (ln_c1d =T)
!!   namc1d_uvd   1D data (currents)                                    (ln_c1d =T)
!!======================================================================
!
!-----------------------------------------------------------------------
&namrun        !   parameters of the run
!-----------------------------------------------------------------------
   nn_no       =       0   !  Assimilation cycle index
   cn_exp      =  "amm7"   !  experience name
   nn_it000    =      1    !  first time step
   nn_itend    =  105120     !  last  time step (288 per day)
   nn_date0    =  20050101   !  date at nit_0000 (format yyyymmdd) used if ln_rstart=F or (ln_rstart=T and nn_rstctl=0 or 1)
   nn_time0    =       0   !  initial time of day in hhmm
   nn_leapy    =       1   !  Leap year calendar (1) or not (0)
   ln_rstart   = .false.   !  start from rest (F) or from a restart file (T)
      ln_1st_euler = .false.  !  =T force a start with forward time step (ln_rstart=T)
      nn_rstctl    =    2     !  restart control ==> activated only if ln_rstart=T
      !                          !    = 0 nn_date0 read in namelist ; nn_it000 : read in namelist
      !                          !    = 1 nn_date0 read in namelist ; nn_it000 : check consistancy between namelist and restart
      !                          !    = 2 nn_date0 read in restart  ; nn_it000 : check consistancy between namelist and restart
      cn_ocerst_in    = "amm7_00105120_restart"   !  suffix of ocean restart name (input)
      cn_ocerst_indir = "./RESTARTS"         !  directory from which to read input ocean restarts
      cn_ocerst_out   = "restart"   !  suffix of ocean restart name (output)
      cn_ocerst_outdir = "./RESTARTS"        !  directory in which to write output ocean restarts
   nn_istate   =       0   !  output the initial state (1) or not (0)
   ln_rst_list = .true.    !  output restarts at list of times using nn_stocklist (T) or at set frequency with nn_stock (F)
   nn_stock    =       0   !  used only if ln_rst_list = F: output restart freqeuncy (modulo referenced to 1)
      !                          !    =  0 force to write restart files only at the end of the run
      !                          !    = -1 do not do any restart
   nn_stocklist = 105120   ! List of timesteps when a restart file is to be written
   nn_write    =       0   !  used only if key_xios is not defined: output frequency (modulo referenced to nn_it000)
      !                          !    =  0 force to write output files only at the end of the run
      !                          !    = -1 do not do any output file
   ln_mskland  = .false.   !  mask land points in NetCDF outputs
   ln_cfmeta   = .false.   !  output additional data to netCDF files required for compliance with the CF metadata standard
   ln_clobber  = .true.    !  clobber (overwrite) an existing file
   nn_chunksz  =       0   !  chunksize (bytes) for NetCDF file (works only with iom_nf90 routines)
   ln_xios_read = .true.  !  use XIOS to read restart file (only for a single file restart)
   nn_wxios = 1      !  use XIOS to write restart file 0 - no, 1 - single file output, 2 - multiple file output
   ln_rstdate = .false.  ! time stamps the restart (custom: domain.F90, restart.F90, in_out_manager.F90) 
/
!-----------------------------------------------------------------------
&namdom        !   time and space domain
!-----------------------------------------------------------------------
   ln_linssh   = .false.   !  =T  linear free surface  ==>>  model level are fixed in time
   !
   rn_Dt       = 300.      !  time step for the dynamics and tracer
   rn_atfp     =    0.1    !  asselin time filter parameter
   !
   ln_crs      = .false.   !  Logical switch for coarsening module      (T => fill namcrs)
   ln_c1d      = .false.   !  Single column domain (1x1pt)              (T => fill namc1d)
   !
   ln_meshmask = .false.   !  =T create a mesh file
/
!-----------------------------------------------------------------------
&namcfg        !   parameters of the configuration                      (default: use namusr_def in namelist_cfg)
!-----------------------------------------------------------------------
   ln_read_cfg = .true.      !  (=T) read the domain configuration file
      !                      !  (=F) user defined configuration           (F => create/check namusr_def)
      cn_domcfg = 'domain_cfg.nc'  ! domain configuration filename
      !
      ln_closea    = .false. !  (=T => fill namclo) 
      !                      !  (=F) no control of net precip/evap over closed sea
      !
   ln_write_cfg = .false.    !  (=T) create the domain configuration file
      cn_domcfg_out = "domain_cfg_out" ! newly created domain configuration filename
      !
   ln_use_jattr = .false.    !  use (T) the file attribute: open_ocean_jstart, if present
   !                         !  in netcdf input files, as the start j-row for reading
/
!-----------------------------------------------------------------------
&namtile        !   parameters of the tiling 
!-----------------------------------------------------------------------
   ln_tile = .false.     !  Use tiling (T) or not (F)
   nn_ltile_i = 99999    !  Length of tiles in i
   nn_ltile_j = 10       !  Length of tiles in j
/
!-----------------------------------------------------------------------
&namtsd        !    Temperature & Salinity Data  (init/dmp)             (default: OFF)
!-----------------------------------------------------------------------
   !                       ! =T  read T-S fields for:
   ln_tsd_init = .true.          !  ocean initialisation
   ln_tsd_dmp  = .false.         !  T-S restoring   (see namtra_dmp)

   cn_dir      = './IC/'      !  root directory for the T-S data location
   !___________!_________________________!___________________!___________!_____________!________!___________!__________________!__________!_______________!
   !           !  file name              ! frequency (hours) ! variable  ! time interp.!  clim  ! 'yearly'/ ! weights filename ! rotation ! land/sea mask !
   !           !                         !  (if <0  months)  !   name    !   (logical) !  (T/F) ! 'monthly' !                  ! pairing  !    filename   !
   sn_tem = 'IC_TandS_GO8P7_y2005m01.nc'   ,  -12.             , 'votemper',   .true.    , .true. , 'yearly'  ,    ''            ,    ''    ,    ''
   sn_sal = 'IC_TandS_GO8P7_y2005m01.nc'   ,  -12.             , 'vosaline',   .true.    , .true. , 'yearly'  ,    ''            ,    ''    ,    ''
/
!-----------------------------------------------------------------------
&namwad        !   Wetting and Drying (WaD)                             (default: OFF)
!-----------------------------------------------------------------------
   ln_wd_dl    = .false.   !  T/F activation of directional limiter
   ln_wd_dl_bc = .false.   !  T/F Directional limiteer Baroclinic option
   ln_wd_dl_rmp = .false.  !  T/F Turn on directional limiter ramp
   rn_wdmin0   =  0.30     !  depth at which WaD starts
   rn_wdmin1   =  0.2      !  Minimum wet depth on dried cells
   rn_wdmin2   =  0.0001   !  Tolerance of min wet depth on dried cells
   rn_wdld     =  2.5      !  Land elevation below which WaD is allowed
   rn_wd_sbcdep =  5.0     !  Depth at which to taper sbc fluxes
   rn_wd_sbcfra =  0.999   !  Fraction of SBC fluxes at taper depth (Must be <1)
/

!!======================================================================
!!            ***  Surface Boundary Condition namelists  ***          !!
!!                                                                    !!
!!   namsbc          surface boundary condition manager                 (default: NO selection)
!!   namsbc_flx      flux               formulation                     (ln_flx     =T)
!!   namsbc_blk      Bulk formulae formulation                          (ln_blk     =T)
!!   namsbc_cpl      CouPLed            formulation                     ("key_oasis3" )
!!   namsbc_sas      Stand-Alone Surface module                         (SAS_SRC  only)
!!   namsbc_iif      Ice-IF: use observed ice cover                     (nn_ice = 1   )
!!   namtra_qsr      penetrative solar radiation                        (ln_traqsr  =T)
!!   namsbc_ssr      sea surface restoring term (for T and/or S)        (ln_ssr     =T)
!!   namsbc_rnf      river runoffs                                      (ln_rnf     =T)
!!   namsbc_apr      Atmospheric Pressure                               (ln_apr_dyn =T)
!!   namsbc_wave     external fields from wave model                    (ln_wave    =T)
!!   namberg         iceberg floats                                     (ln_icebergs=T)
!!   namsbc_fwb      freshwater-budget adjustment                       (nn_fwb > 0)
!!======================================================================
!
!-----------------------------------------------------------------------
&namsbc        !   Surface Boundary Condition manager                   (default: NO selection)
!-----------------------------------------------------------------------
   nn_fsbc     = 1         !  frequency of SBC module call
      !                    !  (control sea-ice & iceberg model call)
                     ! Type of air-sea fluxes
   ln_usr      = .false.   !  user defined formulation                  (T => check usrdef_sbc)
   ln_flx      = .false.   !  flux formulation                          (T => fill namsbc_flx )
   ln_blk      = .true.   !  Bulk formulation                          (T => fill namsbc_blk )
   ln_abl      = .false.   !  ABL  formulation                          (T => fill namsbc_abl )
      !              ! Type of coupling (Ocean/Ice/Atmosphere) :
   ln_cpl      = .false.   !  atmosphere coupled   formulation          ( requires key_oasis3 )
   ln_mixcpl   = .false.   !  forced-coupled mixed formulation          ( requires key_oasis3 )
   nn_components = 0       !  configuration of the opa-sas OASIS coupling
      !                    !  =0 no opa-sas OASIS coupling: default single executable config.
      !                    !  =1 opa-sas OASIS coupling: multi executable config., OCE component
      !                    !  =2 opa-sas OASIS coupling: multi executable config., SAS component
                     ! Sea-ice :
   nn_ice      = 0         !  =0 no ice boundary condition
      !                    !  =1 use observed ice-cover                 (  => fill namsbc_iif )
      !                    !  =2 or 3 for SI3 and CICE, respectively
   ln_ice_embd = .false.   !  =T embedded sea-ice (pressure + mass and salt exchanges)
      !                    !  =F levitating ice (no pressure, mass and salt exchanges)
                     ! Misc. options of sbc :
   ln_traqsr   = .true.   !  Light penetration in the ocean            (T => fill namtra_qsr)
   ln_dm2dc    = .false.   !  daily mean to diurnal cycle on short wave
   ln_ssr      = .false.   !  Sea Surface Restoring on T and/or S       (T => fill namsbc_ssr)
   nn_fwb      = 0         !  FreshWater Budget: =0 unchecked
      !                    !     =1 global mean of e-p-r set to zero at each time step
      !                    !     =2 annual global mean of e-p-r set to zero
   ln_rnf      = .true.   !  runoffs                                   (T => fill namsbc_rnf)
   ln_apr_dyn  = .true.   !  Patm gradient added in ocean & ice Eqs.   (T => fill namsbc_apr )
   ln_wave     = .false.   !  Activate coupling with wave  (T => fill namsbc_wave)
   nn_lsm      = 1         !  =0 land/sea mask for input fields is not applied (keep empty land/sea mask filename field) ,
                           !  =1:n number of iterations of land/sea mask application for input fields (fill land/sea mask filename field)
/
!-----------------------------------------------------------------------
&namsbc_blk    !   namsbc_blk  generic Bulk formula          (ln_blk =T)
!-----------------------------------------------------------------------
   !                    !  bulk algorithm :
   ln_NCAR      = .false.    ! "NCAR"      algorithm   (Large and Yeager 2008)
   ln_COARE_3p0 = .false.    ! "COARE 3.0" algorithm   (Fairall et al. 2003)
   ln_COARE_3p6 = .false.    ! "COARE 3.6" algorithm   (Edson et al. 2013)
   ln_ECMWF     = .true.     ! "ECMWF"     algorithm   (IFS cycle 45r1)
   ln_ANDREAS   = .false.    ! "ANDREAS"   algorithm   (Andreas et al. 2015)
      rn_zqt       = 2.      !  Air temperature & humidity reference height (m)
      rn_zu        = 10.     !  Wind vector reference height (m)
      nn_iter_algo = 10      !  Number of iterations in bulk param. algo ("stable ABL + weak wind" requires more)
      ln_skin_cs   = .true. !  use the cool-skin parameterization  => use at least nn_iter_algo > 10
      ln_skin_wl   = .true. !  use the warm-layer parameterization => use at least nn_iter_algo > 10
   !
   rn_pfac    = 1.          !  multipl. factor for precipitation (total & snow)
   rn_efac    = 1.          !  multipl. factor for evaporation (0. or 1.)
   !
   ln_crt_fbk = .false.     !  Add surface current feedback to the wind stress (Renault et al. 2020, doi: 10.1029/2019MS001715)
         rn_stau_a = -2.9e-3   !     Alpha from eq. 10: Stau = Alpha * Wnd + Beta
         rn_stau_b =  8.0e-3   !     Beta 
   !
   ln_humi_sph = .true.  !  humidity "sn_humi" is specific humidity  [kg/kg]
   ln_humi_dpt = .false. !  humidity "sn_humi" is dew-point temperature [K]
   ln_humi_rlh = .false. !  humidity "sn_humi" is relative humidity     [%]
   ln_tair_pot = .false. !  air temperature read in "sn_tair" is already POTENTIAL TEMPERATURE, NOT ABSOLUTE (ECMWF => ln_tair_pot=.false.)
   !!   
   !! Bulk transfer coefficients over sea-ice: (relevant IF: nn_ice >=1 )
   ln_Cx_ice_cst = .false.     ! use constant ice-air bulk transfer coefficients (value given below)
      rn_Cd_i  = 1.4e-3       ! sea-ice drag coefficient
      rn_Ce_i  = 1.4e-3       !    "    sublimation coefficient
      rn_Ch_i  = 1.4e-3       !    "    sensible heat flux coefficient
   ln_Cx_ice_AN05  = .false.  !  (Andreas et al. 2005)
   ln_Cx_ice_LU12  = .false.  !  (Lupkes et al. 2012)
   ln_Cx_ice_LG15  = .false.  !  (Lupkes & Gryanik 2015)
   !
   cn_dir      = './SBC/'      !  root directory for the bulk data location
   !___________!_________________________!___________________!___________!_____________!________!___________!______________________________________!__________!_______________!
   !           !  file name              ! frequency (hours) ! variable  ! time interp.!  clim  ! 'yearly'/ !       weights filename               ! rotation ! land/sea mask !
   !           !                         !  (if <0  months)  !   name    !   (logical) !  (T/F) ! 'monthly' !                                      ! pairing  !    filename   !
   sn_humi     =   'ERA5_SPH'            ,        1          ,   'SPH'   ,    .true.   , .false.,  'yearly' ,  'weights_era5_bicubic.nc'   ,    ''    ,   'ERA5_LSM'
   sn_prec     =   'ERA5_MTPR'           ,        1          ,  'MTPR'   ,    .true.   , .false.,  'yearly' ,  'weights_era5_bicubic.nc'   ,    ''    ,   'ERA5_LSM'
   sn_qlw      =   'ERA5_MSDWLWRF'       ,        1          , 'MSDWLWRF',    .true.   , .false.,  'yearly' ,  'weights_era5_bicubic.nc'   ,    ''    ,   'ERA5_LSM'
   sn_qsr      =   'ERA5_MSDWSWRF'       ,        1          , 'MSDWSWRF',    .true.   , .false.,  'yearly' ,  'weights_era5_bicubic.nc'   ,    ''    ,   'ERA5_LSM'
   sn_snow     =   'ERA5_MSR'            ,        1          ,   'MSR'   ,    .true.   , .false.,  'yearly' ,  'weights_era5_bicubic.nc'   ,    ''    ,   'ERA5_LSM'
   sn_tair     =   'ERA5_T2M'            ,        1          ,   'T2M'   ,    .true.   , .false.,  'yearly' ,  'weights_era5_bicubic.nc'   ,    ''    ,   'ERA5_LSM'
   sn_wndi     =   'ERA5_U10'            ,        1          ,   'U10'   ,    .true.   , .false.,  'yearly' ,  'weights_era5_bicubic.nc'   ,  'Uwnd'  ,   'ERA5_LSM'
   sn_wndj     =   'ERA5_V10'            ,        1          ,   'V10'   ,    .true.   , .false.,  'yearly' ,  'weights_era5_bicubic.nc'   ,  'Vwnd'  ,   'ERA5_LSM'
   sn_slp      =   'ERA5_MSL'            ,        1          ,   'MSL'   ,    .true.   , .false.,  'yearly' ,  'weights_era5_bicubic.nc'   ,    ''    ,   'ERA5_LSM'
/
!-----------------------------------------------------------------------
&namtra_qsr    !   penetrative solar radiation                          (ln_traqsr =T)
!-----------------------------------------------------------------------
   !                       !  type of penetration                        (default: NO selection)
   ln_qsr_rgb  = .true.      !  RGB light penetration (Red-Green-Blue)
   ln_qsr_2bd  = .false.      !  2BD light penetration (two bands)
   ln_qsr_bio  = .false.      !  bio-model light penetration
   !                       !  RGB & 2BD choices:
   rn_abs      =   0.58       !  RGB & 2BD: fraction absorbed in the very near surface
   rn_si0      =   0.35       !  RGB & 2BD: shortess depth of extinction
   nn_chldta   =      0       !  RGB : Chl data (=1) or cst value (=0)

   cn_dir      = './'      !  root directory for the chlorophyl data location
   !___________!_________________________!___________________!___________!_____________!________!___________!__________________!__________!_______________!
   !           !  file name              ! frequency (hours) ! variable  ! time interp.!  clim  ! 'yearly'/ ! weights filename ! rotation ! land/sea mask !
   !           !                         !  (if <0  months)  !   name    !   (logical) !  (T/F) ! 'monthly' !                  ! pairing  !    filename   !
   sn_chl      ='chlorophyll'            ,        -1.        , 'CHLA'    ,   .true.    , .true. , 'yearly'  , ''               , ''       , ''
/
!-----------------------------------------------------------------------
&namsbc_rnf    !   runoffs                                              (ln_rnf =T)
!-----------------------------------------------------------------------
   ln_rnf_mouth = .false.   !  specific treatment at rivers mouths
      rn_hrnf     =  15.e0     !  depth over which enhanced vertical mixing is used    (ln_rnf_mouth=T)
      rn_avt_rnf  =   1.e-3    !  value of the additional vertical mixing coef. [m2/s] (ln_rnf_mouth=T)
   rn_rfact     =  1.e0    !  multiplicative factor for runoff
   ln_rnf_depth = .true.   !  read in depth information for runoff
   ln_rnf_tem   = .false.   !  read in temperature information for runoff
   ln_rnf_sal   = .false.   !  read in salinity information for runoff
   ln_rnf_icb   = .false.   !  read iceberg flux
   ln_rnf_depth_ini = .false.  ! compute depth at initialisation from runoff file
      rn_rnf_max  = 5.735e-4   !  max value of the runoff climatologie over global domain ( ln_rnf_depth_ini = .true )
      rn_dep_max  = 150.       !  depth over which runoffs is spread ( ln_rnf_depth_ini = .true )
      nn_rnf_depth_file = 0    !  create (=1) a runoff depth file or not (=0)

   cn_dir       = './RIV/'      !  root directory for the runoff data location
   !___________!_________________________!___________________!___________!_____________!________!___________!__________________!__________!_______________!
   !           !  file name              ! frequency (hours) ! variable  ! time interp.!  clim  ! 'yearly'/ ! weights filename ! rotation ! land/sea mask !
   !           !                         !  (if <0  months)  !   name    !   (logical) !  (T/F) ! 'monthly' !                  ! pairing  !    filename   !
   sn_rnf      = 'rivers'                ,        24         , 'rorunoff',   .true.    , .false. , 'yearly'  , ''               , ''       , ''
   sn_dep_rnf  = 'rivers'                ,        24         , 'rodepth' ,   .false.   , .false. , 'yearly'  , ''               , ''       , ''
/
!-----------------------------------------------------------------------
&namsbc_apr    !   Atmospheric pressure used as ocean forcing           (ln_apr_dyn =T)
!-----------------------------------------------------------------------
   rn_pref     = 101000.   !  reference atmospheric pressure   [N/m2]/
   ln_ref_apr  = .false.   !  ref. pressure: global mean Patm (T) or a constant (F)
   ln_apr_obc  = .true.   !  inverse barometer added to OBC ssh data

   cn_dir = './SBC/'        !  root directory for the Patm data location
   !___________!_________________________!___________________!___________!_____________!________!___________!__________________!__________!_______________!
   !           !  file name              ! frequency (hours) ! variable  ! time interp.!  clim  ! 'yearly'/ ! weights filename ! rotation ! land/sea mask !
   !           !                         !  (if <0  months)  !   name    !   (logical) !  (T/F) ! 'monthly' !                  ! pairing  !    filename   !
   sn_apr      = 'ERA5_MSL'              ,          1        ,    'MSL'  ,    .true.   , .false., 'yearly'  ,'weights_era5_bicubic.nc','','ERA5_LSM'
/
!-----------------------------------------------------------------------
&namsbc_fwb    !   freshwater-budget adjustment                         (nn_fwb > 0)
!-----------------------------------------------------------------------
   rn_fwb0     = 0.0          ! Initial freshwater adjustment flux [kg/m2/s] (nn_fwb = 2)
/

!!======================================================================
!!               ***  Lateral boundary condition  ***                 !!
!!                                                                    !!
!!   namlbc        lateral momentum boundary condition                  (default: NO selection)
!!   namagrif      agrif nested grid   (read by child model only)       ("key_agrif")
!!   nam_tide      Tidal forcing                                        (default: OFF)
!!   nambdy        Unstructured open boundaries                         (default: OFF)
!!   nambdy_dta    Unstructured open boundaries - external data         (see  nambdy)
!!   nambdy_tide   tidal forcing at open boundaries                     (default: OFF)
!!======================================================================
!
!-----------------------------------------------------------------------
&namlbc        !   lateral momentum boundary condition                  (default: NO selection)
!-----------------------------------------------------------------------
   !                       !  free slip  !   partial slip  !   no slip   ! strong slip
   rn_shlat    =  0   !  shlat = 0  !  0 < shlat < 2  !  shlat = 2  !  2 < shlat
   ln_vorlat   = .false.   !  consistency of vorticity boundary condition with analytical Eqs.
/
!-----------------------------------------------------------------------
&nam_tide      !   tide parameters                                      (default: OFF)
!-----------------------------------------------------------------------
   ln_tide     = .true.      ! Activate tides
      nn_tide_var   = 1          !  Variant of tidal parameter set and tide-potential computation
      !                          !     (1: default; 0: compatibility with previous versions)
      ln_tide_dia   = .false.    !  Enable tidal diagnostic output
      ln_tide_pot   = .true.               !  use tidal potential forcing
         rn_tide_gamma = 0.7                   ! Tidal tilt factor
         ln_scal_load  = .false.               ! Use scalar approximation for
            rn_scal_load = 0.094               !     load potential
         ln_read_load  = .false.               ! Or read load potential from file
            cn_tide_load = 'tide_LOAD_grid_T.nc'  ! filename for load potential
            !
      ln_tide_ramp  = .false.               !  Use linear ramp for tides at startup
         rn_tide_ramp_dt = 0.               !  ramp duration in days
      sn_tide_cnames(1)     =   'Q1'   !  name of constituent - all tidal components must be set in namelist_cfg
      sn_tide_cnames(2)     =   'O1'
      sn_tide_cnames(3)     =   'P1'
      sn_tide_cnames(4)     =   'S1'
      sn_tide_cnames(5)     =   'K1'
      sn_tide_cnames(6)     =   '2N2'
      sn_tide_cnames(7)     =   'MU2'
      sn_tide_cnames(8)     =   'N2'
      sn_tide_cnames(9)     =   'NU2'
      sn_tide_cnames(10)    =   'M2'
      sn_tide_cnames(11)    =   'L2'
      sn_tide_cnames(12)    =   'T2'
      sn_tide_cnames(13)    =   'S2'
      sn_tide_cnames(14)    =   'K2'
      sn_tide_cnames(15)    =   'M4'
/
!-----------------------------------------------------------------------
&nambdy_ssh
!-----------------------------------------------------------------------
   ln_ssh_bdy=.false.,.false.
   rn_ssh_shift=0.,0.
/
!-----------------------------------------------------------------------
&nambdy        !  unstructured open boundaries                          (default: OFF)
!-----------------------------------------------------------------------
   ln_bdy         = .true.           !  Use unstructured open boundaries
   nb_bdy         = 2                 !  number of open boundary sets
   ln_coords_file = .true., .true.    !  =T : read bdy coordinates from file
      cn_coords_file = 'coordinates.open.bdy.nc', 'coordinates.skag.bdy.nc'  !  bdy coordinates files
   ln_mask_file   = .false.           !  =T : read mask from file
      cn_mask_file = ''               !  name of mask file (if ln_mask_file=.TRUE.)
   cn_dyn2d    = 'flather', 'flather'                           !
   nn_dyn2d_dta   =  3, 1             !  = 0, bdy data are equal to the initial state
      !                               !  = 1, bdy data are read in 'bdydata   .nc' files
      !                               !  = 2, use tidal harmonic forcing data from files
      !                               !  = 3, use external data AND tidal harmonic forcing
   cn_dyn3d      =  'zerograd', 'zerograd'                     !
   nn_dyn3d_dta  =  1, 1              !  = 0, bdy data are equal to the initial state
   !                                  !  = 1, bdy data are read in 'bdydata   .nc' files
   cn_tra        =  'frs', 'frs'      !
   nn_tra_dta    =  1, 1              !  = 0, bdy data are equal to the initial state
   !                                  !  = 1, bdy data are read in 'bdydata   .nc' files
   cn_ice        =  'none', 'none'    !
   nn_ice_dta    =  0, 0              !  = 0, bdy data are equal to the initial state
   !                                  !  = 1, bdy data are read in 'bdydata   .nc' files
   !
   ln_tra_dmp    =.false., .false.    !  open boudaries conditions for tracers
   ln_dyn3d_dmp  =.false., .false.    !  open boundary condition for baroclinic velocities
   rn_time_dmp   =  8., 8.            !  Damping time scale in days
   rn_time_dmp_out = 64., 64.         !  Outflow damping time scale
   nn_rimwidth   = 10, 10             !  width of the relaxation zone
   ln_vol        = .false.     !  total volume correction (see nn_volctl parameter)
   nn_volctl     =  1          !  = 0, the total water flux across open boundaries is zero
/
!-----------------------------------------------------------------------
&nambdy_dta    !  open boundaries - external data
!-----------------------------------------------------------------------
   ln_zinterp  = .false.       !  T if a vertical interpolation is required. Variables gdep[tuv] and e3[tuv] must exist in the file
   !                          !  automatically defined to T if the number of vertical levels in bdy dta /= jpk
   ln_full_vel = .false.       !  T if [uv]3d are "full" velocities and not only its baroclinic components
   !
   cn_dir  = './BDY_OPEN/'
   !___________!_________________________!___________________!___________!_____________!________!___________!__________________!__________!_______________!